j:\lang\tools\llvm-project\build\benchmarks\Release\DummyYAML.exe
j:\lang\tools\llvm-project\build\bin\Release\polly-isl-test.exe
j:\lang\tools\llvm-project\build\CMakeFiles\3.18.2\CompilerIdC\CompilerIdC.exe
j:\lang\tools\llvm-project\build\CMakeFiles\3.18.2\CompilerIdCXX\CompilerIdCXX.exe
j:\lang\tools\llvm-project\build\projects\compiler-rt\lib\asan\tests\default\Release\Asan-x86_64-calls-Benchmark.exe
j:\lang\tools\llvm-project\build\projects\compiler-rt\lib\asan\tests\default\Release\Asan-x86_64-calls-Noinst-Test.exe
j:\lang\tools\llvm-project\build\projects\compiler-rt\lib\asan\tests\default\Release\Asan-x86_64-calls-Test.exe
j:\lang\tools\llvm-project\build\projects\compiler-rt\lib\asan\tests\default\Release\Asan-x86_64-inline-Benchmark.exe
j:\lang\tools\llvm-project\build\projects\compiler-rt\lib\asan\tests\default\Release\Asan-x86_64-inline-Noinst-Test.exe
j:\lang\tools\llvm-project\build\projects\compiler-rt\lib\asan\tests\default\Release\Asan-x86_64-inline-Test.exe
j:\lang\tools\llvm-project\build\projects\compiler-rt\lib\asan\tests\dynamic\Release\Asan-x86_64-calls-Dynamic-Test.exe
j:\lang\tools\llvm-project\build\projects\compiler-rt\lib\asan\tests\dynamic\Release\Asan-x86_64-inline-Dynamic-Test.exe
j:\lang\tools\llvm-project\build\projects\compiler-rt\lib\fuzzer\tests\Release\Fuzzer-x86_64-Test.exe
j:\lang\tools\llvm-project\build\projects\compiler-rt\lib\fuzzer\tests\Release\FuzzerUtils-x86_64-Test.exe
j:\lang\tools\llvm-project\build\projects\compiler-rt\lib\interception\tests\Release\Interception-x86_64-Test.exe
j:\lang\tools\llvm-project\build\projects\compiler-rt\lib\sanitizer_common\tests\Release\Sanitizer-x86_64-Test.exe
j:\lang\tools\llvm-project\build\Release\bin\arcmt-test.exe
j:\lang\tools\llvm-project\build\Release\bin\BrainF.exe
j:\lang\tools\llvm-project\build\Release\bin\bugpoint.exe
j:\lang\tools\llvm-project\build\Release\bin\BuildingAJIT-Ch1.exe
j:\lang\tools\llvm-project\build\Release\bin\BuildingAJIT-Ch2.exe
j:\lang\tools\llvm-project\build\Release\bin\BuildingAJIT-Ch3.exe
j:\lang\tools\llvm-project\build\Release\bin\BuildingAJIT-Ch4.exe
j:\lang\tools\llvm-project\build\Release\bin\c-arcmt-test.exe
j:\lang\tools\llvm-project\build\Release\bin\c-index-test.exe
j:\lang\tools\llvm-project\build\Release\bin\check-gdb-llvm-support.exe
j:\lang\tools\llvm-project\build\Release\bin\clang++.exe
j:\lang\tools\llvm-project\build\Release\bin\clang-apply-replacements.exe
j:\lang\tools\llvm-project\build\Release\bin\clang-change-namespace.exe
j:\lang\tools\llvm-project\build\Release\bin\clang-check.exe
j:\lang\tools\llvm-project\build\Release\bin\clang-cl.exe
j:\lang\tools\llvm-project\build\Release\bin\clang-cpp.exe
j:\lang\tools\llvm-project\build\Release\bin\clang-diff.exe
j:\lang\tools\llvm-project\build\Release\bin\clang-doc.exe
j:\lang\tools\llvm-project\build\Release\bin\clang-extdef-mapping.exe
j:\lang\tools\llvm-project\build\Release\bin\clang-format.exe
j:\lang\tools\llvm-project\build\Release\bin\clang-fuzzer.exe
j:\lang\tools\llvm-project\build\Release\bin\clang-import-test.exe
j:\lang\tools\llvm-project\build\Release\bin\clang-include-fixer.exe
j:\lang\tools\llvm-project\build\Release\bin\clang-move.exe
j:\lang\tools\llvm-project\build\Release\bin\clang-objc-fuzzer.exe
j:\lang\tools\llvm-project\build\Release\bin\clang-offload-bundler.exe
j:\lang\tools\llvm-project\build\Release\bin\clang-offload-wrapper.exe
j:\lang\tools\llvm-project\build\Release\bin\clang-query.exe
j:\lang\tools\llvm-project\build\Release\bin\clang-refactor.exe
j:\lang\tools\llvm-project\build\Release\bin\clang-rename.exe
j:\lang\tools\llvm-project\build\Release\bin\clang-reorder-fields.exe
j:\lang\tools\llvm-project\build\Release\bin\clang-scan-deps.exe
j:\lang\tools\llvm-project\build\Release\bin\clang-tblgen.exe
j:\lang\tools\llvm-project\build\Release\bin\clang-tidy.exe
j:\lang\tools\llvm-project\build\Release\bin\clang.exe
j:\lang\tools\llvm-project\build\Release\bin\clangd-indexer.exe
j:\lang\tools\llvm-project\build\Release\bin\clangd.exe
j:\lang\tools\llvm-project\build\Release\bin\count.exe
j:\lang\tools\llvm-project\build\Release\bin\dexp.exe
j:\lang\tools\llvm-project\build\Release\bin\diagtool.exe
j:\lang\tools\llvm-project\build\Release\bin\dsymutil.exe
j:\lang\tools\llvm-project\build\Release\bin\Fibonacci.exe
j:\lang\tools\llvm-project\build\Release\bin\FileCheck.exe
j:\lang\tools\llvm-project\build\Release\bin\find-all-symbols.exe
j:\lang\tools\llvm-project\build\Release\bin\HowToUseJIT.exe
j:\lang\tools\llvm-project\build\Release\bin\HowToUseLLJIT.exe
j:\lang\tools\llvm-project\build\Release\bin\Kaleidoscope-Ch2.exe
j:\lang\tools\llvm-project\build\Release\bin\Kaleidoscope-Ch3.exe
j:\lang\tools\llvm-project\build\Release\bin\Kaleidoscope-Ch4.exe
j:\lang\tools\llvm-project\build\Release\bin\Kaleidoscope-Ch5.exe
j:\lang\tools\llvm-project\build\Release\bin\Kaleidoscope-Ch6.exe
j:\lang\tools\llvm-project\build\Release\bin\Kaleidoscope-Ch7.exe
j:\lang\tools\llvm-project\build\Release\bin\Kaleidoscope-Ch8.exe
j:\lang\tools\llvm-project\build\Release\bin\Kaleidoscope-Ch9.exe
j:\lang\tools\llvm-project\build\Release\bin\KillTheDoctor.exe
j:\lang\tools\llvm-project\build\Release\bin\ld.lld.exe
j:\lang\tools\llvm-project\build\Release\bin\ld64.lld.exe
j:\lang\tools\llvm-project\build\Release\bin\lit-cpuid.exe
j:\lang\tools\llvm-project\build\Release\bin\llc.exe
j:\lang\tools\llvm-project\build\Release\bin\lld-link.exe
j:\lang\tools\llvm-project\build\Release\bin\lld.exe
j:\lang\tools\llvm-project\build\Release\bin\lldb-argdumper.exe
j:\lang\tools\llvm-project\build\Release\bin\lldb-instr.exe
j:\lang\tools\llvm-project\build\Release\bin\lldb-server.exe
j:\lang\tools\llvm-project\build\Release\bin\lldb-tblgen.exe
j:\lang\tools\llvm-project\build\Release\bin\lldb-test.exe
j:\lang\tools\llvm-project\build\Release\bin\lldb-vscode.exe
j:\lang\tools\llvm-project\build\Release\bin\lldb.exe
j:\lang\tools\llvm-project\build\Release\bin\lli-child-target.exe
j:\lang\tools\llvm-project\build\Release\bin\lli.exe
j:\lang\tools\llvm-project\build\Release\bin\LLJITDumpObjects.exe
j:\lang\tools\llvm-project\build\Release\bin\LLJITWithCustomObjectLinkingLayer.exe
j:\lang\tools\llvm-project\build\Release\bin\LLJITWithGDBRegistrationListener.exe
j:\lang\tools\llvm-project\build\Release\bin\LLJITWithInitializers.exe
j:\lang\tools\llvm-project\build\Release\bin\LLJITWithLazyReexports.exe
j:\lang\tools\llvm-project\build\Release\bin\LLJITWithObjectCache.exe
j:\lang\tools\llvm-project\build\Release\bin\LLJITWithObjectLinkingLayerPlugin.exe
j:\lang\tools\llvm-project\build\Release\bin\LLJITWithOptimizingIRTransform.exe
j:\lang\tools\llvm-project\build\Release\bin\LLJITWithTargetProcessControl.exe
j:\lang\tools\llvm-project\build\Release\bin\LLJITWithThinLTOSummaries.exe
j:\lang\tools\llvm-project\build\Release\bin\llvm-addr2line.exe
j:\lang\tools\llvm-project\build\Release\bin\llvm-ar.exe
j:\lang\tools\llvm-project\build\Release\bin\llvm-as.exe
j:\lang\tools\llvm-project\build\Release\bin\llvm-bcanalyzer.exe
j:\lang\tools\llvm-project\build\Release\bin\llvm-bitcode-strip.exe
j:\lang\tools\llvm-project\build\Release\bin\llvm-c-test.exe
j:\lang\tools\llvm-project\build\Release\bin\llvm-cat.exe
j:\lang\tools\llvm-project\build\Release\bin\llvm-cfi-verify.exe
j:\lang\tools\llvm-project\build\Release\bin\llvm-config.exe
j:\lang\tools\llvm-project\build\Release\bin\llvm-cov.exe
j:\lang\tools\llvm-project\build\Release\bin\llvm-cvtres.exe
j:\lang\tools\llvm-project\build\Release\bin\llvm-cxxdump.exe
j:\lang\tools\llvm-project\build\Release\bin\llvm-cxxfilt.exe
j:\lang\tools\llvm-project\build\Release\bin\llvm-cxxmap.exe
j:\lang\tools\llvm-project\build\Release\bin\llvm-diff.exe
j:\lang\tools\llvm-project\build\Release\bin\llvm-dis.exe
j:\lang\tools\llvm-project\build\Release\bin\llvm-dlltool.exe
j:\lang\tools\llvm-project\build\Release\bin\llvm-dwarfdump.exe
j:\lang\tools\llvm-project\build\Release\bin\llvm-dwp.exe
j:\lang\tools\llvm-project\build\Release\bin\llvm-elfabi.exe
j:\lang\tools\llvm-project\build\Release\bin\llvm-exegesis.exe
j:\lang\tools\llvm-project\build\Release\bin\llvm-extract.exe
j:\lang\tools\llvm-project\build\Release\bin\llvm-gsymutil.exe
j:\lang\tools\llvm-project\build\Release\bin\llvm-ifs.exe
j:\lang\tools\llvm-project\build\Release\bin\llvm-install-name-tool.exe
j:\lang\tools\llvm-project\build\Release\bin\llvm-isel-fuzzer.exe
j:\lang\tools\llvm-project\build\Release\bin\llvm-itanium-demangle-fuzzer.exe
j:\lang\tools\llvm-project\build\Release\bin\llvm-jitlink.exe
j:\lang\tools\llvm-project\build\Release\bin\llvm-lib.exe
j:\lang\tools\llvm-project\build\Release\bin\llvm-libtool-darwin.exe
j:\lang\tools\llvm-project\build\Release\bin\llvm-link.exe
j:\lang\tools\llvm-project\build\Release\bin\llvm-lipo.exe
j:\lang\tools\llvm-project\build\Release\bin\llvm-lto.exe
j:\lang\tools\llvm-project\build\Release\bin\llvm-lto2.exe
j:\lang\tools\llvm-project\build\Release\bin\llvm-mc.exe
j:\lang\tools\llvm-project\build\Release\bin\llvm-mca.exe
j:\lang\tools\llvm-project\build\Release\bin\llvm-microsoft-demangle-fuzzer.exe
j:\lang\tools\llvm-project\build\Release\bin\llvm-ml.exe
j:\lang\tools\llvm-project\build\Release\bin\llvm-modextract.exe
j:\lang\tools\llvm-project\build\Release\bin\llvm-mt.exe
j:\lang\tools\llvm-project\build\Release\bin\llvm-nm.exe
j:\lang\tools\llvm-project\build\Release\bin\llvm-objcopy.exe
j:\lang\tools\llvm-project\build\Release\bin\llvm-objdump.exe
j:\lang\tools\llvm-project\build\Release\bin\llvm-opt-fuzzer.exe
j:\lang\tools\llvm-project\build\Release\bin\llvm-opt-report.exe
j:\lang\tools\llvm-project\build\Release\bin\llvm-pdbutil.exe
j:\lang\tools\llvm-project\build\Release\bin\llvm-PerfectShuffle.exe
j:\lang\tools\llvm-project\build\Release\bin\llvm-profdata.exe
j:\lang\tools\llvm-project\build\Release\bin\llvm-ranlib.exe
j:\lang\tools\llvm-project\build\Release\bin\llvm-rc.exe
j:\lang\tools\llvm-project\build\Release\bin\llvm-readelf.exe
j:\lang\tools\llvm-project\build\Release\bin\llvm-readobj.exe
j:\lang\tools\llvm-project\build\Release\bin\llvm-reduce.exe
j:\lang\tools\llvm-project\build\Release\bin\llvm-rtdyld.exe
j:\lang\tools\llvm-project\build\Release\bin\llvm-size.exe
j:\lang\tools\llvm-project\build\Release\bin\llvm-special-case-list-fuzzer.exe
j:\lang\tools\llvm-project\build\Release\bin\llvm-split.exe
j:\lang\tools\llvm-project\build\Release\bin\llvm-stress.exe
j:\lang\tools\llvm-project\build\Release\bin\llvm-strings.exe
j:\lang\tools\llvm-project\build\Release\bin\llvm-strip.exe
j:\lang\tools\llvm-project\build\Release\bin\llvm-symbolizer.exe
j:\lang\tools\llvm-project\build\Release\bin\llvm-tblgen.exe
j:\lang\tools\llvm-project\build\Release\bin\llvm-undname.exe
j:\lang\tools\llvm-project\build\Release\bin\llvm-xray.exe
j:\lang\tools\llvm-project\build\Release\bin\llvm-yaml-numeric-parser-fuzzer.exe
j:\lang\tools\llvm-project\build\Release\bin\mlir-capi-ir-test.exe
j:\lang\tools\llvm-project\build\Release\bin\mlir-cpu-runner.exe
j:\lang\tools\llvm-project\build\Release\bin\mlir-edsc-builder-api-test.exe
j:\lang\tools\llvm-project\build\Release\bin\mlir-linalg-ods-gen.exe
j:\lang\tools\llvm-project\build\Release\bin\mlir-opt.exe
j:\lang\tools\llvm-project\build\Release\bin\mlir-reduce.exe
j:\lang\tools\llvm-project\build\Release\bin\mlir-sdbm-api-test.exe
j:\lang\tools\llvm-project\build\Release\bin\mlir-tblgen.exe
j:\lang\tools\llvm-project\build\Release\bin\mlir-translate.exe
j:\lang\tools\llvm-project\build\Release\bin\modularize.exe
j:\lang\tools\llvm-project\build\Release\bin\ModuleMaker.exe
j:\lang\tools\llvm-project\build\Release\bin\not.exe
j:\lang\tools\llvm-project\build\Release\bin\obj2yaml.exe
j:\lang\tools\llvm-project\build\Release\bin\opt.exe
j:\lang\tools\llvm-project\build\Release\bin\OrcV2CBindingsAddObjectFile.exe
j:\lang\tools\llvm-project\build\Release\bin\OrcV2CBindingsBasicUsage.exe
j:\lang\tools\llvm-project\build\Release\bin\OrcV2CBindingsReflectProcessSymbols.exe
j:\lang\tools\llvm-project\build\Release\bin\OrcV2CBindingsRemovableCode.exe
j:\lang\tools\llvm-project\build\Release\bin\pp-trace.exe
j:\lang\tools\llvm-project\build\Release\bin\sancov.exe
j:\lang\tools\llvm-project\build\Release\bin\sanstats.exe
j:\lang\tools\llvm-project\build\Release\bin\SpeculativeJIT.exe
j:\lang\tools\llvm-project\build\Release\bin\split-file.exe
j:\lang\tools\llvm-project\build\Release\bin\tool-template.exe
j:\lang\tools\llvm-project\build\Release\bin\toyc-ch1.exe
j:\lang\tools\llvm-project\build\Release\bin\toyc-ch2.exe
j:\lang\tools\llvm-project\build\Release\bin\toyc-ch3.exe
j:\lang\tools\llvm-project\build\Release\bin\toyc-ch4.exe
j:\lang\tools\llvm-project\build\Release\bin\toyc-ch5.exe
j:\lang\tools\llvm-project\build\Release\bin\toyc-ch6.exe
j:\lang\tools\llvm-project\build\Release\bin\toyc-ch7.exe
j:\lang\tools\llvm-project\build\Release\bin\verify-uselistorder.exe
j:\lang\tools\llvm-project\build\Release\bin\wasm-ld.exe
j:\lang\tools\llvm-project\build\Release\bin\yaml-bench.exe
j:\lang\tools\llvm-project\build\Release\bin\yaml2obj.exe
j:\lang\tools\llvm-project\build\Release\lib\site-packages\lldb\lldb-argdumper.exe
j:\lang\tools\llvm-project\build\tools\clang\tools\extra\clangd\benchmarks\CompletionModel\Release\DecisionForestBenchmark.exe
j:\lang\tools\llvm-project\build\tools\clang\tools\extra\clangd\benchmarks\Release\IndexBenchmark.exe
j:\lang\tools\llvm-project\build\tools\clang\tools\extra\clangd\unittests\Release\ClangdTests.exe
j:\lang\tools\llvm-project\build\tools\clang\tools\extra\unittests\clang-apply-replacements\Release\ClangApplyReplacementsTests.exe
j:\lang\tools\llvm-project\build\tools\clang\tools\extra\unittests\clang-change-namespace\Release\ClangChangeNamespaceTests.exe
j:\lang\tools\llvm-project\build\tools\clang\tools\extra\unittests\clang-doc\Release\ClangDocTests.exe
j:\lang\tools\llvm-project\build\tools\clang\tools\extra\unittests\clang-include-fixer\find-all-symbols\Release\FindAllSymbolsTests.exe
j:\lang\tools\llvm-project\build\tools\clang\tools\extra\unittests\clang-include-fixer\Release\ClangIncludeFixerTests.exe
j:\lang\tools\llvm-project\build\tools\clang\tools\extra\unittests\clang-move\Release\ClangMoveTests.exe
j:\lang\tools\llvm-project\build\tools\clang\tools\extra\unittests\clang-query\Release\ClangQueryTests.exe
j:\lang\tools\llvm-project\build\tools\clang\tools\extra\unittests\clang-tidy\Release\ClangTidyTests.exe
j:\lang\tools\llvm-project\build\tools\clang\unittests\Analysis\Release\ClangAnalysisTests.exe
j:\lang\tools\llvm-project\build\tools\clang\unittests\AST\Release\ASTTests.exe
j:\lang\tools\llvm-project\build\tools\clang\unittests\ASTMatchers\Dynamic\Release\DynamicASTMatchersTests.exe
j:\lang\tools\llvm-project\build\tools\clang\unittests\ASTMatchers\Release\ASTMatchersTests.exe
j:\lang\tools\llvm-project\build\tools\clang\unittests\Basic\Release\BasicTests.exe
j:\lang\tools\llvm-project\build\tools\clang\unittests\CodeGen\Release\ClangCodeGenTests.exe
j:\lang\tools\llvm-project\build\tools\clang\unittests\CrossTU\Release\CrossTUTests.exe
j:\lang\tools\llvm-project\build\tools\clang\unittests\Driver\Release\ClangDriverTests.exe
j:\lang\tools\llvm-project\build\tools\clang\unittests\Format\Release\FormatTests.exe
j:\lang\tools\llvm-project\build\tools\clang\unittests\Frontend\Release\FrontendTests.exe
j:\lang\tools\llvm-project\build\tools\clang\unittests\Index\Release\IndexTests.exe
j:\lang\tools\llvm-project\build\tools\clang\unittests\Lex\Release\LexTests.exe
j:\lang\tools\llvm-project\build\tools\clang\unittests\Rename\Release\ClangRenameTests.exe
j:\lang\tools\llvm-project\build\tools\clang\unittests\Rewrite\Release\RewriteTests.exe
j:\lang\tools\llvm-project\build\tools\clang\unittests\Sema\Release\SemaTests.exe
j:\lang\tools\llvm-project\build\tools\clang\unittests\Serialization\Release\SerializationTests.exe
j:\lang\tools\llvm-project\build\tools\clang\unittests\StaticAnalyzer\Release\StaticAnalysisTests.exe
j:\lang\tools\llvm-project\build\tools\clang\unittests\Tooling\Release\ToolingTests.exe
j:\lang\tools\llvm-project\build\tools\clang\unittests\Tooling\Syntax\Release\SyntaxTests.exe
j:\lang\tools\llvm-project\build\tools\lld\unittests\DriverTests\Release\DriverTests.exe
j:\lang\tools\llvm-project\build\tools\lld\unittests\MachOTests\Release\lldMachOTests.exe
j:\lang\tools\llvm-project\build\tools\lldb\unittests\Breakpoint\Release\LLDBBreakpointTests.exe
j:\lang\tools\llvm-project\build\tools\lldb\unittests\Core\Release\LLDBCoreTests.exe
j:\lang\tools\llvm-project\build\tools\lldb\unittests\DataFormatter\Release\LLDBFormatterTests.exe
j:\lang\tools\llvm-project\build\tools\lldb\unittests\Disassembler\Release\DisassemblerTests.exe
j:\lang\tools\llvm-project\build\tools\lldb\unittests\Editline\Release\EditlineTests.exe
j:\lang\tools\llvm-project\build\tools\lldb\unittests\Expression\Release\ExpressionTests.exe
j:\lang\tools\llvm-project\build\tools\lldb\unittests\Host\Release\HostTests.exe
j:\lang\tools\llvm-project\build\tools\lldb\unittests\Instruction\Release\EmulatorTests.exe
j:\lang\tools\llvm-project\build\tools\lldb\unittests\Interpreter\Release\InterpreterTests.exe
j:\lang\tools\llvm-project\build\tools\lldb\unittests\Language\CLanguages\Release\LanguageCLanguagesTests.exe
j:\lang\tools\llvm-project\build\tools\lldb\unittests\Language\CPlusPlus\Release\LanguageCPlusPlusTests.exe
j:\lang\tools\llvm-project\build\tools\lldb\unittests\Language\Highlighting\Release\HighlighterTests.exe
j:\lang\tools\llvm-project\build\tools\lldb\unittests\ObjectFile\Breakpad\Release\ObjectFileBreakpadTests.exe
j:\lang\tools\llvm-project\build\tools\lldb\unittests\ObjectFile\ELF\Release\ObjectFileELFTests.exe
j:\lang\tools\llvm-project\build\tools\lldb\unittests\ObjectFile\MachO\Release\ObjectFileMachOTests.exe
j:\lang\tools\llvm-project\build\tools\lldb\unittests\ObjectFile\PECOFF\Release\ObjectFilePECOFFTests.exe
j:\lang\tools\llvm-project\build\tools\lldb\unittests\Platform\Android\Release\AdbClientTests.exe
j:\lang\tools\llvm-project\build\tools\lldb\unittests\Platform\Release\LLDBPlatformTests.exe
j:\lang\tools\llvm-project\build\tools\lldb\unittests\Process\gdb-remote\Release\ProcessGdbRemoteTests.exe
j:\lang\tools\llvm-project\build\tools\lldb\unittests\Process\minidump\Release\LLDBMinidumpTests.exe
j:\lang\tools\llvm-project\build\tools\lldb\unittests\Process\Release\ProcessEventDataTests.exe
j:\lang\tools\llvm-project\build\tools\lldb\unittests\ScriptInterpreter\Lua\Release\ScriptInterpreterLuaTests.exe
j:\lang\tools\llvm-project\build\tools\lldb\unittests\ScriptInterpreter\Python\Release\ScriptInterpreterPythonTests.exe
j:\lang\tools\llvm-project\build\tools\lldb\unittests\Signals\Release\SignalsTests.exe
j:\lang\tools\llvm-project\build\tools\lldb\unittests\Symbol\Release\SymbolTests.exe
j:\lang\tools\llvm-project\build\tools\lldb\unittests\SymbolFile\DWARF\Release\SymbolFileDWARFTests.exe
j:\lang\tools\llvm-project\build\tools\lldb\unittests\SymbolFile\DWARF\Release\Inputs\test-dwarf.exe
j:\lang\tools\llvm-project\build\tools\lldb\unittests\SymbolFile\NativePDB\Release\SymbolFileNativePDBTests.exe
j:\lang\tools\llvm-project\build\tools\lldb\unittests\SymbolFile\PDB\Release\SymbolFilePDBTests.exe
j:\lang\tools\llvm-project\build\tools\lldb\unittests\SymbolFile\PDB\Release\Inputs\test-pdb-types.exe
j:\lang\tools\llvm-project\build\tools\lldb\unittests\SymbolFile\PDB\Release\Inputs\test-pdb.exe
j:\lang\tools\llvm-project\build\tools\lldb\unittests\Target\Release\TargetTests.exe
j:\lang\tools\llvm-project\build\tools\lldb\unittests\Thread\Release\ThreadTests.exe
j:\lang\tools\llvm-project\build\tools\lldb\unittests\tools\lldb-server\Release\environment_check.exe
j:\lang\tools\llvm-project\build\tools\lldb\unittests\tools\lldb-server\Release\thread_inferior.exe
j:\lang\tools\llvm-project\build\tools\lldb\unittests\tools\lldb-server\tests\Release\LLDBServerTests.exe
j:\lang\tools\llvm-project\build\tools\lldb\unittests\UnwindAssembly\ARM64\Release\Arm64InstEmulationTests.exe
j:\lang\tools\llvm-project\build\tools\lldb\unittests\UnwindAssembly\PPC64\Release\PPC64InstEmulationTests.exe
j:\lang\tools\llvm-project\build\tools\lldb\unittests\UnwindAssembly\x86\Release\UnwindAssemblyx86Tests.exe
j:\lang\tools\llvm-project\build\tools\lldb\unittests\Utility\Release\UtilityTests.exe
j:\lang\tools\llvm-project\build\tools\mlir\unittests\Analysis\Presburger\Release\MLIRPresburgerTests.exe
j:\lang\tools\llvm-project\build\tools\mlir\unittests\Analysis\Release\MLIRAnalysisTests.exe
j:\lang\tools\llvm-project\build\tools\mlir\unittests\Dialect\Release\MLIRDialectTests.exe
j:\lang\tools\llvm-project\build\tools\mlir\unittests\Dialect\SPIRV\Release\MLIRSPIRVTests.exe
j:\lang\tools\llvm-project\build\tools\mlir\unittests\IR\Release\MLIRIRTests.exe
j:\lang\tools\llvm-project\build\tools\mlir\unittests\Pass\Release\MLIRPassTests.exe
j:\lang\tools\llvm-project\build\tools\mlir\unittests\SDBM\Release\MLIRSDBMTests.exe
j:\lang\tools\llvm-project\build\tools\mlir\unittests\TableGen\Release\MLIRTableGenTests.exe
j:\lang\tools\llvm-project\build\tools\polly\unittests\DeLICM\Release\DeLICMTests.exe
j:\lang\tools\llvm-project\build\tools\polly\unittests\Flatten\Release\FlattenTests.exe
j:\lang\tools\llvm-project\build\tools\polly\unittests\Isl\Release\IslTests.exe
j:\lang\tools\llvm-project\build\tools\polly\unittests\ScheduleOptimizer\Release\ScheduleOptimizerTests.exe
j:\lang\tools\llvm-project\build\tools\polly\unittests\ScopPassManager\Release\ScopPassManagerTests.exe
j:\lang\tools\llvm-project\build\tools\polly\unittests\Support\Release\ISLToolsTests.exe
j:\lang\tools\llvm-project\build\unittests\ADT\Release\ADTTests.exe
j:\lang\tools\llvm-project\build\unittests\Analysis\Release\AnalysisTests.exe
j:\lang\tools\llvm-project\build\unittests\AsmParser\Release\AsmParserTests.exe
j:\lang\tools\llvm-project\build\unittests\BinaryFormat\Release\BinaryFormatTests.exe
j:\lang\tools\llvm-project\build\unittests\Bitcode\Release\BitcodeTests.exe
j:\lang\tools\llvm-project\build\unittests\Bitstream\Release\BitstreamTests.exe
j:\lang\tools\llvm-project\build\unittests\CodeGen\GlobalISel\Release\GlobalISelTests.exe
j:\lang\tools\llvm-project\build\unittests\CodeGen\Release\CodeGenTests.exe
j:\lang\tools\llvm-project\build\unittests\DebugInfo\CodeView\Release\DebugInfoCodeViewTests.exe
j:\lang\tools\llvm-project\build\unittests\DebugInfo\DWARF\Release\DebugInfoDWARFTests.exe
j:\lang\tools\llvm-project\build\unittests\DebugInfo\GSYM\Release\DebugInfoGSYMTests.exe
j:\lang\tools\llvm-project\build\unittests\DebugInfo\MSF\Release\DebugInfoMSFTests.exe
j:\lang\tools\llvm-project\build\unittests\DebugInfo\PDB\Release\DebugInfoPDBTests.exe
j:\lang\tools\llvm-project\build\unittests\Demangle\Release\DemangleTests.exe
j:\lang\tools\llvm-project\build\unittests\ExecutionEngine\JITLink\Release\JITLinkTests.exe
j:\lang\tools\llvm-project\build\unittests\ExecutionEngine\MCJIT\Release\MCJITTests.exe
j:\lang\tools\llvm-project\build\unittests\ExecutionEngine\Orc\Release\OrcJITTests.exe
j:\lang\tools\llvm-project\build\unittests\ExecutionEngine\Release\ExecutionEngineTests.exe
j:\lang\tools\llvm-project\build\unittests\FileCheck\Release\FileCheckTests.exe
j:\lang\tools\llvm-project\build\unittests\Frontend\Release\LLVMFrontendTests.exe
j:\lang\tools\llvm-project\build\unittests\FuzzMutate\Release\FuzzMutateTests.exe
j:\lang\tools\llvm-project\build\unittests\InterfaceStub\Release\InterfaceStubTests.exe
j:\lang\tools\llvm-project\build\unittests\IR\Release\IRTests.exe
j:\lang\tools\llvm-project\build\unittests\LineEditor\Release\LineEditorTests.exe
j:\lang\tools\llvm-project\build\unittests\Linker\Release\LinkerTests.exe
j:\lang\tools\llvm-project\build\unittests\MC\AMDGPU\Release\AMDGPUDwarfTests.exe
j:\lang\tools\llvm-project\build\unittests\MC\Release\MCTests.exe
j:\lang\tools\llvm-project\build\unittests\MI\Release\MITests.exe
j:\lang\tools\llvm-project\build\unittests\Object\Release\ObjectTests.exe
j:\lang\tools\llvm-project\build\unittests\ObjectYAML\Release\ObjectYAMLTests.exe
j:\lang\tools\llvm-project\build\unittests\Option\Release\OptionTests.exe
j:\lang\tools\llvm-project\build\unittests\ProfileData\Release\ProfileDataTests.exe
j:\lang\tools\llvm-project\build\unittests\Remarks\Release\RemarksTests.exe
j:\lang\tools\llvm-project\build\unittests\Support\DynamicLibrary\Release\DynamicLibraryTests.exe
j:\lang\tools\llvm-project\build\unittests\Support\Release\SupportTests.exe
j:\lang\tools\llvm-project\build\unittests\TableGen\Release\TableGenTests.exe
j:\lang\tools\llvm-project\build\unittests\Target\AArch64\Release\AArch64Tests.exe
j:\lang\tools\llvm-project\build\unittests\Target\AMDGPU\Release\AMDGPUTests.exe
j:\lang\tools\llvm-project\build\unittests\Target\ARM\Release\ARMTests.exe
j:\lang\tools\llvm-project\build\unittests\Target\PowerPC\Release\PowerPCTests.exe
j:\lang\tools\llvm-project\build\unittests\Target\WebAssembly\Release\WebAssemblyTests.exe
j:\lang\tools\llvm-project\build\unittests\Target\X86\Release\X86Tests.exe
j:\lang\tools\llvm-project\build\unittests\TextAPI\Release\TextAPITests.exe
j:\lang\tools\llvm-project\build\unittests\tools\llvm-cfi-verify\Release\CFIVerifyTests.exe
j:\lang\tools\llvm-project\build\unittests\tools\llvm-exegesis\AArch64\Release\LLVMExegesisAArch64Tests.exe
j:\lang\tools\llvm-project\build\unittests\tools\llvm-exegesis\ARM\Release\LLVMExegesisARMTests.exe
j:\lang\tools\llvm-project\build\unittests\tools\llvm-exegesis\Mips\Release\LLVMExegesisMipsTests.exe
j:\lang\tools\llvm-project\build\unittests\tools\llvm-exegesis\PowerPC\Release\LLVMExegesisPowerPCTests.exe
j:\lang\tools\llvm-project\build\unittests\tools\llvm-exegesis\Release\LLVMExegesisTests.exe
j:\lang\tools\llvm-project\build\unittests\tools\llvm-exegesis\X86\Release\LLVMExegesisX86Tests.exe
j:\lang\tools\llvm-project\build\unittests\Transforms\IPO\Release\IPOTests.exe
j:\lang\tools\llvm-project\build\unittests\Transforms\Scalar\Release\ScalarTests.exe
j:\lang\tools\llvm-project\build\unittests\Transforms\Utils\Release\UtilsTests.exe
j:\lang\tools\llvm-project\build\unittests\Transforms\Vectorize\Release\VectorizeTests.exe
j:\lang\tools\llvm-project\build\unittests\XRay\Release\XRayTests.exe
j:\lang\tools\llvm-project\clang\test\Driver\Inputs\fuse_ld_windows\ld.foo.exe
j:\lang\tools\llvm-project\lldb\unittests\SymbolFile\DWARF\Inputs\test-dwarf.exe
j:\lang\tools\llvm-project\lldb\unittests\SymbolFile\PDB\Inputs\test-pdb-types.exe
j:\lang\tools\llvm-project\lldb\unittests\SymbolFile\PDB\Inputs\test-pdb.exe
j:\lang\tools\llvm-project\llvm\test\Object\Inputs\main-ret-zero-pe-i386.exe
j:\lang\tools\llvm-project\llvm\test\tools\llvm-objdump\COFF\Inputs\win64-unwind.exe.coff-x86_64.exe
j:\lang\tools\llvm-project\llvm\test\tools\llvm-readobj\COFF\Inputs\coff-load-config-data-end.exe
j:\lang\tools\llvm-project\llvm\test\tools\llvm-readobj\COFF\Inputs\coff-no-load-config.exe
j:\lang\tools\llvm-project\llvm\test\tools\llvm-readobj\COFF\Inputs\has-cet.exe
j:\lang\tools\llvm-project\llvm\test\tools\llvm-readobj\COFF\Inputs\has_pdb.exe
j:\lang\tools\llvm-project\llvm\test\tools\llvm-symbolizer\Inputs\addr.exe
j:\lang\tools\llvm-project\llvm\test\tools\llvm-symbolizer\Inputs\coff-dwarf.exe
j:\lang\tools\llvm-project\llvm\test\tools\llvm-symbolizer\Inputs\coff-exports.exe
j:\lang\tools\llvm-project\llvm\test\tools\llvm-symbolizer\pdb\Inputs\missing_pdb.exe
j:\lang\tools\llvm-project\llvm\test\tools\llvm-symbolizer\pdb\Inputs\test-columns.exe
j:\lang\tools\llvm-project\llvm\test\tools\llvm-symbolizer\pdb\Inputs\test.exe
j:\lang\tools\llvm-project\llvm\unittests\DebugInfo\PDB\Inputs\SimpleTest.exe
